xflr5 v6.47

Plane 1
T1-10.0 m/s-Panel-Inviscid
QInf  =   10.000000 m/s
Alpha =   10.000000
Beta  =    0.000°
Phi   =    0.000°
Ctrl  =    0.000
CL    =    1.189015
Cy    =   -0.000000
Cd    =    0.050389     ICd   =    0.050389     PCd   =    0.000000
Cl   = 3.45817e-17
Cm   =    -1.49311
ICn   =   -0.000000     PCn   =   -0.000000 
XCP   =    4.597445     YCP   =    0.000000     ZCP   =    0.352641  
XNP   =    0.000000
Bending = 20432.560157

Main Wing
  y-span        Chord      Ai         Cl        PCd          ICd        CmGeom    CmAirf@chord/4    XTrtop    XTrBot      XCP       BM
  -14.6200     1.5562    -9.995    0.410905    0.000000    0.072417   -2.456784    0.000454     0.0000    0.0000    0.2456    0.0000
  -14.5201     1.5810    -7.420    0.675217    0.000000    0.087921   -3.646559   -0.037491     0.0000    0.0000    0.2986    0.2021
  -14.3211     1.6303    -5.908    0.905333    0.000000    0.093656   -4.522783   -0.045213     0.0000    0.0000    0.2944    2.6180
  -14.0242     1.7039    -4.715    1.076979    0.000000    0.088781   -5.075336   -0.062265     0.0000    0.0000    0.3024   13.1080
  -13.6315     1.8012    -3.808    1.193861    0.000000    0.079418   -5.232591   -0.077729     0.0000    0.0000    0.3096   42.7297
  -13.1457     1.9216    -3.132    1.265840    0.000000    0.069195   -5.073566   -0.088762     0.0000    0.0000    0.3145   108.4582
  -12.5701     2.0643    -2.656    1.304456    0.000000    0.060445   -4.710818   -0.095663     0.0000    0.0000    0.3177   233.4303
  -11.9086     2.2283    -2.351    1.319845    0.000000    0.054112   -4.241230   -0.099682     0.0000    0.0000    0.3198   446.8721
  -11.1658     2.4124    -2.179    1.319430    0.000000    0.050116   -3.732648   -0.101921     0.0000    0.0000    0.3215   783.7801
  -10.3467     2.6154    -2.104    1.308114    0.000000    0.047960   -3.227134   -0.103095     0.0000    0.0000    0.3231   1284.3261
   -9.4570     2.8359    -2.098    1.288970    0.000000    0.047109   -2.748553   -0.103635     0.0000    0.0000    0.3247   1992.9137
   -8.5026     3.0725    -2.140    1.263835    0.000000    0.047108   -2.309040   -0.103804     0.0000    0.0000    0.3265   2956.8275
   -7.4902     3.3234    -2.215    1.233717    0.000000    0.047586   -1.913594   -0.103749     0.0000    0.0000    0.3285   4224.4494
   -6.4265     3.5871    -2.311    1.199072    0.000000    0.048239   -1.562954   -0.103604     0.0000    0.0000    0.3308   5843.0518
   -5.3190     3.8616    -2.417    1.159924    0.000000    0.048766   -1.255659   -0.103523     0.0000    0.0000    0.3337   7856.2200
   -4.1752     4.1451    -2.516    1.115929    0.000000    0.048804   -0.989267   -0.103789     0.0000    0.0000    0.3376   10300.9842
   -3.0028     4.4357    -2.585    1.066378    0.000000    0.047820   -0.761339   -0.105045     0.0000    0.0000    0.3432   13204.7727
   -1.8099     4.7314    -2.567    1.009932    0.000000    0.044744   -0.570498   -0.108864     0.0000    0.0000    0.3528   16582.3169
   -0.6047     5.0301    -2.271    0.940691    0.000000    0.035644   -0.418661   -0.120722     0.0000    0.0000    0.3738   20432.5602
    0.6047     5.0301    -2.271    0.940691    0.000000    0.035644   -0.418661   -0.120722     0.0000    0.0000    0.3738   20432.5602
    1.8099     4.7314    -2.567    1.009932    0.000000    0.044744   -0.570498   -0.108864     0.0000    0.0000    0.3528   16582.3169
    3.0028     4.4357    -2.585    1.066378    0.000000    0.047820   -0.761339   -0.105045     0.0000    0.0000    0.3432   13204.7727
    4.1752     4.1451    -2.516    1.115929    0.000000    0.048804   -0.989267   -0.103789     0.0000    0.0000    0.3376   10300.9842
    5.3190     3.8616    -2.417    1.159924    0.000000    0.048766   -1.255659   -0.103523     0.0000    0.0000    0.3337   7856.2200
    6.4265     3.5871    -2.311    1.199072    0.000000    0.048239   -1.562954   -0.103604     0.0000    0.0000    0.3308   5843.0518
    7.4902     3.3234    -2.215    1.233717    0.000000    0.047586   -1.913594   -0.103749     0.0000    0.0000    0.3285   4224.4494
    8.5026     3.0725    -2.140    1.263835    0.000000    0.047108   -2.309040   -0.103804     0.0000    0.0000    0.3265   2956.8275
    9.4570     2.8359    -2.098    1.288970    0.000000    0.047109   -2.748553   -0.103635     0.0000    0.0000    0.3247   1992.9137
   10.3467     2.6154    -2.104    1.308114    0.000000    0.047960   -3.227134   -0.103095     0.0000    0.0000    0.3231   1284.3261
   11.1658     2.4124    -2.179    1.319430    0.000000    0.050116   -3.732648   -0.101921     0.0000    0.0000    0.3215   783.7801
   11.9086     2.2283    -2.351    1.319845    0.000000    0.054112   -4.241230   -0.099682     0.0000    0.0000    0.3198   446.8721
   12.5701     2.0643    -2.656    1.304456    0.000000    0.060445   -4.710818   -0.095663     0.0000    0.0000    0.3177   233.4303
   13.1457     1.9216    -3.132    1.265840    0.000000    0.069195   -5.073566   -0.088762     0.0000    0.0000    0.3145   108.4582
   13.6315     1.8012    -3.808    1.193861    0.000000    0.079418   -5.232591   -0.077729     0.0000    0.0000    0.3096   42.7297
   14.0242     1.7039    -4.715    1.076979    0.000000    0.088781   -5.075336   -0.062265     0.0000    0.0000    0.3024   13.1080
   14.3211     1.6303    -5.908    0.905333    0.000000    0.093656   -4.522783   -0.045213     0.0000    0.0000    0.2944    2.6180
   14.5201     1.5810    -7.420    0.675217    0.000000    0.087921   -3.646559   -0.037491     0.0000    0.0000    0.2986    0.2021
   14.6200     1.5562    -9.995    0.410905    0.000000    0.072417   -2.456784    0.000454     0.0000    0.0000    0.2456    0.0000


Main Wing Cp Coefficients
 Panel     CtrlPt.x        CtrlPt.y        CtrlPt.z       Nx      Ny       Nz        Area       Cp
Main WingCp Coefficients
Strip 1
  13       9.169e+00      -1.461e+01       5.160e-01          -0.040          -0.051          -0.998       1.132e-03         -1.3393
  14       9.124e+00      -1.461e+01       5.230e-01          -0.193          -0.092          -0.977       3.397e-03         -1.3278
  15       9.038e+00      -1.461e+01       5.317e-01          -0.040          -0.049          -0.998       5.335e-03         -1.1708
  16       8.914e+00      -1.461e+01       5.251e-01           0.123           0.001          -0.992       7.082e-03         -0.8272
  17       8.761e+00      -1.461e+01       4.985e-01           0.210           0.030          -0.977       8.519e-03         -0.5065
  18       8.587e+00      -1.461e+01       4.634e-01           0.187           0.021          -0.982       9.294e-03         -0.3505
  19       8.402e+00      -1.461e+01       4.379e-01           0.086          -0.018          -0.996       9.427e-03         -0.2765
  20       8.217e+00      -1.461e+01       4.288e-01           0.011          -0.049          -0.999       9.119e-03         -0.2111
  21       8.043e+00      -1.461e+01       4.316e-01          -0.045          -0.074          -0.996       8.330e-03         -0.1502
  22       7.890e+00      -1.461e+01       4.423e-01          -0.098          -0.098          -0.990       7.076e-03         -0.0720
  23       7.766e+00      -1.461e+01       4.589e-01          -0.178          -0.137          -0.974       5.449e-03          0.0738
  24       7.680e+00      -1.461e+01       4.822e-01          -0.372          -0.231          -0.899       3.671e-03          0.3361
  25       7.635e+00      -1.461e+01       5.158e-01          -0.792          -0.429          -0.433       2.521e-03          0.0489
  26       7.635e+00      -1.461e+01       5.557e-01          -0.792          -0.397           0.463       2.520e-03         -1.8828
  27       7.680e+00      -1.461e+01       5.893e-01          -0.374          -0.166           0.913       3.671e-03         -2.3633
  28       7.766e+00      -1.461e+01       6.127e-01          -0.177          -0.064           0.982       5.440e-03         -1.2352
  29       7.890e+00      -1.461e+01       6.292e-01          -0.098          -0.025           0.995       7.065e-03         -0.8009
  30       8.043e+00      -1.461e+01       6.397e-01          -0.044          -0.000           0.999       8.315e-03         -0.6435
  31       8.217e+00      -1.461e+01       6.436e-01          -0.002           0.019           1.000       9.103e-03         -0.5661
  32       8.402e+00      -1.461e+01       6.405e-01           0.035           0.034           0.999       9.380e-03         -0.5344
  33       8.587e+00      -1.461e+01       6.302e-01           0.078           0.050           0.996       9.131e-03         -0.5548
  34       8.761e+00      -1.461e+01       6.121e-01           0.131           0.069           0.989       8.380e-03         -0.6671
  35       8.914e+00      -1.461e+01       5.876e-01           0.189           0.088           0.978       7.159e-03         -0.9301
  36       9.038e+00      -1.461e+01       5.608e-01           0.241           0.103           0.965       5.504e-03         -1.2940
  37       9.124e+00      -1.461e+01       5.379e-01           0.280           0.114           0.953       3.478e-03         -1.5423
  38       9.169e+00      -1.461e+01       5.218e-01           0.483           0.166           0.860       1.307e-03         -1.3454
Strip 2
  39       9.141e+00      -1.451e+01       5.120e-01          -0.040          -0.051          -0.998       3.443e-03         -0.6398
  40       9.096e+00      -1.451e+01       5.191e-01          -0.193          -0.092          -0.977       1.033e-02         -0.5176
  41       9.008e+00      -1.451e+01       5.280e-01          -0.040          -0.049          -0.998       1.622e-02         -0.3995
  42       8.883e+00      -1.451e+01       5.213e-01           0.123           0.001          -0.992       2.154e-02         -0.2663
  43       8.727e+00      -1.451e+01       4.943e-01           0.210           0.030          -0.977       2.590e-02         -0.1872
  44       8.550e+00      -1.451e+01       4.586e-01           0.187           0.021          -0.982       2.826e-02         -0.2039
  45       8.362e+00      -1.451e+01       4.327e-01           0.086          -0.018          -0.996       2.867e-02         -0.2070
  46       8.175e+00      -1.451e+01       4.235e-01           0.011          -0.049          -0.999       2.773e-02         -0.1496
  47       7.998e+00      -1.451e+01       4.263e-01          -0.045          -0.074          -0.996       2.533e-02         -0.0690
  48       7.842e+00      -1.451e+01       4.371e-01          -0.098          -0.098          -0.990       2.152e-02          0.0438
  49       7.717e+00      -1.451e+01       4.540e-01          -0.178          -0.137          -0.975       1.657e-02          0.2342
  50       7.629e+00      -1.451e+01       4.777e-01          -0.372          -0.231          -0.899       1.116e-02          0.5120
  51       7.583e+00      -1.451e+01       5.118e-01          -0.792          -0.429          -0.434       7.667e-03         -0.0918
  52       7.583e+00      -1.451e+01       5.523e-01          -0.793          -0.397           0.463       7.662e-03         -2.6017
  53       7.629e+00      -1.451e+01       5.865e-01          -0.374          -0.166           0.913       1.116e-02         -3.0341
  54       7.717e+00      -1.451e+01       6.102e-01          -0.177          -0.064           0.982       1.654e-02         -1.5813
  55       7.842e+00      -1.451e+01       6.270e-01          -0.098          -0.025           0.995       2.148e-02         -0.9765
  56       7.998e+00      -1.451e+01       6.377e-01          -0.044          -0.000           0.999       2.528e-02         -0.7282
  57       8.175e+00      -1.451e+01       6.417e-01          -0.002           0.019           1.000       2.768e-02         -0.6072
  58       8.362e+00      -1.451e+01       6.385e-01           0.035           0.034           0.999       2.852e-02         -0.5555
  59       8.550e+00      -1.451e+01       6.280e-01           0.078           0.050           0.996       2.777e-02         -0.5571
  60       8.727e+00      -1.451e+01       6.097e-01           0.131           0.069           0.989       2.548e-02         -0.6051
  61       8.883e+00      -1.451e+01       5.848e-01           0.189           0.088           0.978       2.177e-02         -0.6966
  62       9.008e+00      -1.451e+01       5.576e-01           0.241           0.103           0.965       1.674e-02         -0.7815
  63       9.096e+00      -1.451e+01       5.342e-01           0.280           0.114           0.953       1.058e-02         -0.8287
  64       9.141e+00      -1.451e+01       5.179e-01           0.483           0.166           0.860       3.975e-03         -0.5614
Strip 3
  65       9.087e+00      -1.431e+01       5.041e-01          -0.040          -0.051          -0.998       5.890e-03         -0.0799
  66       9.040e+00      -1.431e+01       5.114e-01          -0.193          -0.092          -0.977       1.768e-02          0.1087
  67       8.949e+00      -1.431e+01       5.205e-01          -0.040          -0.049          -0.998       2.775e-02          0.1779
  68       8.820e+00      -1.431e+01       5.136e-01           0.123           0.001          -0.992       3.684e-02          0.1493
  69       8.659e+00      -1.431e+01       4.858e-01           0.210           0.030          -0.977       4.431e-02          0.0614
  70       8.477e+00      -1.431e+01       4.490e-01           0.187           0.021          -0.982       4.834e-02         -0.0562
  71       8.283e+00      -1.431e+01       4.223e-01           0.086          -0.018          -0.996       4.904e-02         -0.0995
  72       8.090e+00      -1.432e+01       4.128e-01           0.011          -0.049          -0.999       4.744e-02         -0.0404
  73       7.907e+00      -1.432e+01       4.157e-01          -0.045          -0.074          -0.996       4.333e-02          0.0687
  74       7.747e+00      -1.431e+01       4.269e-01          -0.098          -0.098          -0.990       3.682e-02          0.2242
  75       7.617e+00      -1.431e+01       4.443e-01          -0.178          -0.137          -0.975       2.835e-02          0.4484
  76       7.527e+00      -1.431e+01       4.687e-01          -0.372          -0.231          -0.899       1.910e-02          0.6837
  77       7.480e+00      -1.431e+01       5.039e-01          -0.792          -0.429          -0.434       1.312e-02         -0.2369
  78       7.480e+00      -1.431e+01       5.457e-01          -0.793          -0.397           0.463       1.311e-02         -3.2063
  79       7.527e+00      -1.431e+01       5.810e-01          -0.374          -0.166           0.913       1.909e-02         -3.6035
  80       7.617e+00      -1.431e+01       6.054e-01          -0.177          -0.064           0.982       2.829e-02         -1.9211
  81       7.747e+00      -1.431e+01       6.227e-01          -0.098          -0.025           0.995       3.675e-02         -1.1991
  82       7.907e+00      -1.431e+01       6.338e-01          -0.044          -0.000           0.999       4.325e-02         -0.8651
  83       8.090e+00      -1.431e+01       6.378e-01          -0.002           0.019           1.000       4.736e-02         -0.6787
  84       8.283e+00      -1.431e+01       6.346e-01           0.035           0.034           0.999       4.880e-02         -0.5753
  85       8.477e+00      -1.431e+01       6.237e-01           0.078           0.050           0.996       4.751e-02         -0.5135
  86       8.659e+00      -1.431e+01       6.048e-01           0.131           0.069           0.989       4.360e-02         -0.4519
  87       8.820e+00      -1.431e+01       5.791e-01           0.189           0.088           0.978       3.725e-02         -0.3743
  88       8.949e+00      -1.431e+01       5.511e-01           0.241           0.103           0.965       2.864e-02         -0.2724
  89       9.040e+00      -1.431e+01       5.270e-01           0.280           0.114           0.953       1.810e-02         -0.1998
  90       9.087e+00      -1.431e+01       5.102e-01           0.483           0.166           0.860       6.802e-03          0.0774
Strip 4
  91       9.005e+00      -1.402e+01       4.923e-01          -0.040          -0.051          -0.998       8.559e-03          0.0359
  92       8.956e+00      -1.402e+01       4.999e-01          -0.193          -0.092          -0.977       2.569e-02          0.2473
  93       8.861e+00      -1.401e+01       5.095e-01          -0.040          -0.049          -0.998       4.033e-02          0.3246
  94       8.726e+00      -1.402e+01       5.023e-01           0.123           0.001          -0.992       5.353e-02          0.2851
  95       8.558e+00      -1.402e+01       4.732e-01           0.210           0.030          -0.977       6.438e-02          0.1770
  96       8.368e+00      -1.402e+01       4.347e-01           0.187           0.021          -0.982       7.024e-02          0.0407
  97       8.165e+00      -1.402e+01       4.068e-01           0.086          -0.018          -0.996       7.126e-02         -0.0095
  98       7.963e+00      -1.402e+01       3.968e-01           0.011          -0.049          -0.999       6.894e-02          0.0561
  99       7.772e+00      -1.402e+01       3.999e-01          -0.045          -0.074          -0.996       6.298e-02          0.1781
 100       7.604e+00      -1.402e+01       4.116e-01          -0.098          -0.098          -0.990       5.350e-02          0.3409
 101       7.469e+00      -1.402e+01       4.297e-01          -0.178          -0.137          -0.975       4.121e-02          0.5550
 102       7.374e+00      -1.402e+01       4.553e-01          -0.372          -0.231          -0.899       2.777e-02          0.7256
 103       7.326e+00      -1.402e+01       4.920e-01          -0.792          -0.429          -0.435       1.908e-02         -0.4349
 104       7.326e+00      -1.401e+01       5.357e-01          -0.793          -0.397           0.462       1.904e-02         -3.6720
 105       7.374e+00      -1.401e+01       5.726e-01          -0.374          -0.166           0.912       2.773e-02         -4.0041
 106       7.469e+00      -1.401e+01       5.981e-01          -0.177          -0.064           0.982       4.111e-02         -2.1541
 107       7.604e+00      -1.401e+01       6.162e-01          -0.098          -0.025           0.995       5.340e-02         -1.3711
 108       7.772e+00      -1.401e+01       6.278e-01          -0.044          -0.000           0.999       6.285e-02         -1.0018
 109       7.963e+00      -1.401e+01       6.321e-01          -0.002           0.019           1.000       6.882e-02         -0.7799
 110       8.165e+00      -1.401e+01       6.287e-01           0.035           0.034           0.999       7.092e-02         -0.6403
 111       8.368e+00      -1.401e+01       6.173e-01           0.078           0.050           0.996       6.904e-02         -0.5422
 112       8.558e+00      -1.401e+01       5.975e-01           0.131           0.069           0.989       6.336e-02         -0.4433
 113       8.726e+00      -1.401e+01       5.707e-01           0.189           0.088           0.978       5.414e-02         -0.3271
 114       8.861e+00      -1.401e+01       5.414e-01           0.241           0.103           0.965       4.162e-02         -0.1893
 115       8.956e+00      -1.401e+01       5.162e-01           0.280           0.114           0.953       2.630e-02         -0.0911
 116       9.005e+00      -1.402e+01       4.987e-01           0.482           0.166           0.860       9.887e-03          0.1817
Strip 5
 117       8.897e+00      -1.362e+01       4.766e-01          -0.040          -0.051          -0.998       1.153e-02          0.0745
 118       8.845e+00      -1.362e+01       4.847e-01          -0.193          -0.092          -0.977       3.460e-02          0.2970
 119       8.745e+00      -1.362e+01       4.948e-01          -0.040          -0.049          -0.998       5.432e-02          0.3813
 120       8.602e+00      -1.362e+01       4.872e-01           0.123           0.001          -0.992       7.209e-02          0.3435
 121       8.425e+00      -1.362e+01       4.565e-01           0.210           0.030          -0.977       8.669e-02          0.2351
 122       8.223e+00      -1.362e+01       4.157e-01           0.187           0.021          -0.982       9.458e-02          0.0999
 123       8.009e+00      -1.363e+01       3.863e-01           0.086          -0.018          -0.996       9.596e-02          0.0534
 124       7.795e+00      -1.363e+01       3.758e-01           0.011          -0.049          -0.999       9.284e-02          0.1225
 125       7.594e+00      -1.363e+01       3.790e-01          -0.045          -0.074          -0.996       8.482e-02          0.2452
 126       7.416e+00      -1.363e+01       3.913e-01          -0.098          -0.098          -0.990       7.207e-02          0.4037
 127       7.273e+00      -1.362e+01       4.105e-01          -0.178          -0.136          -0.975       5.551e-02          0.6069
 128       7.173e+00      -1.362e+01       4.375e-01          -0.371          -0.231          -0.899       3.742e-02          0.7318
 129       7.122e+00      -1.362e+01       4.764e-01          -0.791          -0.429          -0.436       2.570e-02         -0.5881
 130       7.122e+00      -1.362e+01       5.226e-01          -0.793          -0.397           0.461       2.563e-02         -3.9972
 131       7.173e+00      -1.362e+01       5.616e-01          -0.374          -0.166           0.912       3.733e-02         -4.2751
 132       7.273e+00      -1.362e+01       5.886e-01          -0.177          -0.064           0.982       5.535e-02         -2.3064
 133       7.416e+00      -1.362e+01       6.077e-01          -0.098          -0.025           0.995       7.190e-02         -1.4846
 134       7.594e+00      -1.362e+01       6.199e-01          -0.044          -0.000           0.999       8.464e-02         -1.0989
 135       7.795e+00      -1.362e+01       6.244e-01          -0.002           0.019           1.000       9.268e-02         -0.8633
 136       8.009e+00      -1.362e+01       6.208e-01           0.035           0.034           0.999       9.551e-02         -0.7079
 137       8.223e+00      -1.362e+01       6.088e-01           0.078           0.050           0.996       9.299e-02         -0.5914
 138       8.425e+00      -1.362e+01       5.879e-01           0.131           0.069           0.989       8.534e-02         -0.4723
 139       8.602e+00      -1.362e+01       5.596e-01           0.189           0.088           0.978       7.292e-02         -0.3348
 140       8.745e+00      -1.362e+01       5.286e-01           0.241           0.103           0.965       5.606e-02         -0.1789
 141       8.845e+00      -1.362e+01       5.020e-01           0.280           0.114           0.953       3.543e-02         -0.0675
 142       8.897e+00      -1.362e+01       4.834e-01           0.482           0.166           0.860       1.332e-02          0.2043
Strip 6
 143       8.763e+00      -1.314e+01       4.573e-01          -0.040          -0.051          -0.998       1.486e-02          0.0911
 144       8.708e+00      -1.314e+01       4.660e-01          -0.193          -0.092          -0.977       4.461e-02          0.3200
 145       8.601e+00      -1.314e+01       4.767e-01          -0.040          -0.049          -0.998       7.002e-02          0.4089
 146       8.448e+00      -1.314e+01       4.686e-01           0.123           0.001          -0.992       9.291e-02          0.3739
 147       8.259e+00      -1.314e+01       4.358e-01           0.210           0.030          -0.977       1.117e-01          0.2680
 148       8.044e+00      -1.314e+01       3.923e-01           0.187           0.021          -0.982       1.219e-01          0.1363
 149       7.816e+00      -1.314e+01       3.609e-01           0.086          -0.018          -0.996       1.237e-01          0.0929
 150       7.588e+00      -1.314e+01       3.497e-01           0.011          -0.049          -0.999       1.197e-01          0.1626
 151       7.373e+00      -1.314e+01       3.531e-01          -0.045          -0.074          -0.996       1.093e-01          0.2832
 152       7.183e+00      -1.314e+01       3.663e-01          -0.098          -0.098          -0.990       9.290e-02          0.4376
 153       7.031e+00      -1.314e+01       3.868e-01          -0.178          -0.136          -0.975       7.157e-02          0.6335
 154       6.924e+00      -1.314e+01       4.156e-01          -0.371          -0.231          -0.899       4.825e-02          0.7307
 155       6.869e+00      -1.314e+01       4.571e-01          -0.791          -0.429          -0.437       3.315e-02         -0.6820
 156       6.869e+00      -1.314e+01       5.064e-01          -0.794          -0.397           0.460       3.302e-02         -4.1937
 157       6.924e+00      -1.314e+01       5.479e-01          -0.374          -0.166           0.912       4.809e-02         -4.4384
 158       7.031e+00      -1.313e+01       5.767e-01          -0.177          -0.064           0.982       7.133e-02         -2.3968
 159       7.183e+00      -1.313e+01       5.971e-01          -0.098          -0.025           0.995       9.267e-02         -1.5517
 160       7.373e+00      -1.313e+01       6.102e-01          -0.044          -0.000           0.999       1.091e-01         -1.1574
 161       7.588e+00      -1.313e+01       6.150e-01          -0.002           0.019           1.000       1.195e-01         -0.9163
 162       7.816e+00      -1.313e+01       6.112e-01           0.035           0.034           0.999       1.231e-01         -0.7544
 163       8.044e+00      -1.313e+01       5.984e-01           0.078           0.050           0.996       1.199e-01         -0.6296
 164       8.259e+00      -1.313e+01       5.761e-01           0.131           0.069           0.989       1.100e-01         -0.4993
 165       8.448e+00      -1.314e+01       5.458e-01           0.189           0.088           0.978       9.400e-02         -0.3495
 166       8.601e+00      -1.314e+01       5.127e-01           0.241           0.103           0.965       7.228e-02         -0.1831
 167       8.708e+00      -1.314e+01       4.843e-01           0.280           0.114           0.953       4.568e-02         -0.0636
 168       8.763e+00      -1.314e+01       4.645e-01           0.482           0.166           0.860       1.717e-02          0.2086
Strip 7
 169       8.604e+00      -1.256e+01       4.344e-01          -0.040          -0.051          -0.998       1.861e-02          0.0998
 170       8.545e+00      -1.256e+01       4.437e-01          -0.193          -0.092          -0.977       5.586e-02          0.3322
 171       8.430e+00      -1.256e+01       4.552e-01          -0.040          -0.049          -0.998       8.767e-02          0.4239
 172       8.267e+00      -1.256e+01       4.465e-01           0.123           0.001          -0.992       1.163e-01          0.3907
 173       8.063e+00      -1.256e+01       4.113e-01           0.210           0.030          -0.977       1.398e-01          0.2868
 174       7.832e+00      -1.256e+01       3.646e-01           0.187           0.021          -0.982       1.526e-01          0.1572
 175       7.587e+00      -1.256e+01       3.308e-01           0.086          -0.018          -0.996       1.548e-01          0.1152
 176       7.342e+00      -1.257e+01       3.188e-01           0.011          -0.049          -0.999       1.498e-01          0.1845
 177       7.111e+00      -1.256e+01       3.225e-01          -0.045          -0.074          -0.996       1.369e-01          0.3032
 178       6.908e+00      -1.256e+01       3.366e-01          -0.098          -0.098          -0.990       1.163e-01          0.4547
 179       6.744e+00      -1.256e+01       3.586e-01          -0.178          -0.136          -0.975       8.963e-02          0.6464
 180       6.629e+00      -1.256e+01       3.896e-01          -0.371          -0.231          -0.899       6.045e-02          0.7307
 181       6.570e+00      -1.256e+01       4.341e-01          -0.791          -0.429          -0.438       4.152e-02         -0.7212
 182       6.570e+00      -1.256e+01       4.871e-01          -0.794          -0.398           0.459       4.131e-02         -4.2821
 183       6.629e+00      -1.256e+01       5.318e-01          -0.375          -0.166           0.912       6.019e-02         -4.5149
 184       6.744e+00      -1.256e+01       5.627e-01          -0.177          -0.064           0.982       8.928e-02         -2.4402
 185       6.908e+00      -1.256e+01       5.846e-01          -0.098          -0.025           0.995       1.160e-01         -1.5854
 186       7.111e+00      -1.256e+01       5.987e-01          -0.044          -0.000           0.999       1.366e-01         -1.1878
 187       7.342e+00      -1.256e+01       6.038e-01          -0.002           0.019           1.000       1.496e-01         -0.9449
 188       7.587e+00      -1.256e+01       5.997e-01           0.035           0.034           0.999       1.542e-01         -0.7809
 189       7.832e+00      -1.256e+01       5.859e-01           0.078           0.050           0.996       1.501e-01         -0.6522
 190       8.063e+00      -1.256e+01       5.620e-01           0.131           0.069           0.989       1.378e-01         -0.5164
 191       8.267e+00      -1.256e+01       5.295e-01           0.189           0.087           0.978       1.177e-01         -0.3600
 192       8.430e+00      -1.256e+01       4.939e-01           0.241           0.103           0.965       9.051e-02         -0.1879
 193       8.545e+00      -1.256e+01       4.634e-01           0.280           0.114           0.953       5.720e-02         -0.0635
 194       8.604e+00      -1.256e+01       4.421e-01           0.482           0.166           0.860       2.151e-02          0.2091
Strip 8
 195       8.422e+00      -1.190e+01       4.081e-01          -0.040          -0.051          -0.998       2.280e-02          0.1045
 196       8.358e+00      -1.190e+01       4.181e-01          -0.193          -0.092          -0.977       6.846e-02          0.3390
 197       8.234e+00      -1.190e+01       4.306e-01          -0.040          -0.049          -0.998       1.074e-01          0.4322
 198       8.058e+00      -1.190e+01       4.212e-01           0.123           0.001          -0.992       1.425e-01          0.4001
 199       7.838e+00      -1.190e+01       3.831e-01           0.210           0.030          -0.977       1.713e-01          0.2970
 200       7.589e+00      -1.190e+01       3.327e-01           0.187           0.021          -0.982       1.869e-01          0.1682
 201       7.324e+00      -1.190e+01       2.963e-01           0.086          -0.018          -0.996       1.897e-01          0.1262
 202       7.059e+00      -1.190e+01       2.832e-01           0.011          -0.049          -0.999       1.836e-01          0.1946
 203       6.810e+00      -1.190e+01       2.872e-01          -0.045          -0.074          -0.996       1.678e-01          0.3118
 204       6.591e+00      -1.190e+01       3.025e-01          -0.098          -0.098          -0.990       1.426e-01          0.4613
 205       6.414e+00      -1.190e+01       3.263e-01          -0.178          -0.136          -0.975       1.099e-01          0.6509
 206       6.290e+00      -1.190e+01       3.597e-01          -0.371          -0.231          -0.900       7.410e-02          0.7336
 207       6.226e+00      -1.190e+01       4.078e-01          -0.790          -0.428          -0.439       5.091e-02         -0.7160
 208       6.226e+00      -1.190e+01       4.650e-01          -0.795          -0.398           0.458       5.060e-02         -4.2854
 209       6.290e+00      -1.190e+01       5.132e-01          -0.375          -0.167           0.912       7.371e-02         -4.5243
 210       6.414e+00      -1.190e+01       5.466e-01          -0.177          -0.064           0.982       1.094e-01         -2.4489
 211       6.591e+00      -1.190e+01       5.702e-01          -0.098          -0.025           0.995       1.421e-01         -1.5951
 212       6.810e+00      -1.190e+01       5.854e-01          -0.044          -0.000           0.999       1.673e-01         -1.1988
 213       7.059e+00      -1.190e+01       5.910e-01          -0.002           0.019           1.000       1.833e-01         -0.9568
 214       7.324e+00      -1.190e+01       5.865e-01           0.035           0.034           0.999       1.889e-01         -0.7927
 215       7.589e+00      -1.190e+01       5.717e-01           0.078           0.050           0.996       1.839e-01         -0.6629
 216       7.838e+00      -1.190e+01       5.458e-01           0.131           0.069           0.989       1.688e-01         -0.5248
 217       8.058e+00      -1.190e+01       5.107e-01           0.189           0.087           0.978       1.443e-01         -0.3653
 218       8.234e+00      -1.190e+01       4.724e-01           0.241           0.103           0.965       1.109e-01         -0.1905
 219       8.358e+00      -1.190e+01       4.394e-01           0.280           0.114           0.953       7.011e-02         -0.0636
 220       8.422e+00      -1.190e+01       4.164e-01           0.482           0.166           0.860       2.636e-02          0.2089
Strip 9
 221       8.218e+00      -1.116e+01       3.785e-01          -0.040          -0.051          -0.998       2.745e-02          0.1070
 222       8.148e+00      -1.116e+01       3.894e-01          -0.193          -0.092          -0.977       8.244e-02          0.3427
 223       8.014e+00      -1.116e+01       4.029e-01          -0.040          -0.049          -0.998       1.294e-01          0.4369
 224       7.823e+00      -1.116e+01       3.927e-01           0.123           0.001          -0.992       1.716e-01          0.4054
 225       7.585e+00      -1.116e+01       3.515e-01           0.210           0.030          -0.977       2.063e-01          0.3023
 226       7.315e+00      -1.116e+01       2.969e-01           0.187           0.021          -0.982       2.250e-01          0.1729
 227       7.029e+00      -1.116e+01       2.575e-01           0.086          -0.018          -0.996       2.284e-01          0.1301
 228       6.742e+00      -1.116e+01       2.433e-01           0.011          -0.049          -0.999       2.211e-01          0.1974
 229       6.472e+00      -1.116e+01       2.477e-01          -0.045          -0.074          -0.996       2.020e-01          0.3131
 230       6.235e+00      -1.116e+01       2.642e-01          -0.098          -0.098          -0.990       1.717e-01          0.4609
 231       6.043e+00      -1.116e+01       2.899e-01          -0.178          -0.136          -0.975       1.323e-01          0.6497
 232       5.909e+00      -1.116e+01       3.261e-01          -0.371          -0.231          -0.900       8.927e-02          0.7392
 233       5.840e+00      -1.116e+01       3.782e-01          -0.790          -0.428          -0.439       6.133e-02         -0.6773
 234       5.840e+00      -1.116e+01       4.401e-01          -0.795          -0.398           0.457       6.090e-02         -4.2246
 235       5.909e+00      -1.116e+01       4.923e-01          -0.375          -0.167           0.912       8.872e-02         -4.4838
 236       6.043e+00      -1.116e+01       5.285e-01          -0.177          -0.064           0.982       1.317e-01         -2.4322
 237       6.235e+00      -1.116e+01       5.541e-01          -0.098          -0.025           0.995       1.711e-01         -1.5881
 238       6.472e+00      -1.116e+01       5.705e-01          -0.044          -0.000           0.999       2.015e-01         -1.1965
 239       6.742e+00      -1.116e+01       5.765e-01          -0.002           0.019           1.000       2.207e-01         -0.9573
 240       7.029e+00      -1.116e+01       5.717e-01           0.035           0.034           0.999       2.275e-01         -0.7947
 241       7.315e+00      -1.116e+01       5.557e-01           0.078           0.050           0.996       2.215e-01         -0.6656
 242       7.585e+00      -1.116e+01       5.276e-01           0.131           0.069           0.989       2.033e-01         -0.5270
 243       7.823e+00      -1.116e+01       4.896e-01           0.189           0.087           0.978       1.737e-01         -0.3667
 244       8.014e+00      -1.116e+01       4.481e-01           0.240           0.103           0.965       1.336e-01         -0.1912
 245       8.148e+00      -1.116e+01       4.125e-01           0.280           0.114           0.953       8.444e-02         -0.0634
 246       8.218e+00      -1.116e+01       3.876e-01           0.482           0.166           0.860       3.176e-02          0.2086
Strip 10
 247       7.992e+00      -1.034e+01       3.459e-01          -0.040          -0.051          -0.998       3.257e-02          0.1082
 248       7.917e+00      -1.034e+01       3.577e-01          -0.193          -0.092          -0.977       9.781e-02          0.3449
 249       7.772e+00      -1.034e+01       3.723e-01          -0.040          -0.049          -0.998       1.535e-01          0.4396
 250       7.564e+00      -1.034e+01       3.613e-01           0.123           0.001          -0.992       2.035e-01          0.4081
 251       7.307e+00      -1.034e+01       3.166e-01           0.210           0.030          -0.977       2.446e-01          0.3045
 252       7.014e+00      -1.034e+01       2.574e-01           0.187           0.021          -0.982       2.669e-01          0.1737
 253       6.703e+00      -1.034e+01       2.147e-01           0.086          -0.018          -0.996       2.709e-01          0.1293
 254       6.393e+00      -1.034e+01       1.994e-01           0.011          -0.049          -0.999       2.622e-01          0.1952
 255       6.100e+00      -1.034e+01       2.041e-01          -0.045          -0.074          -0.996       2.396e-01          0.3094
 256       5.842e+00      -1.034e+01       2.220e-01          -0.098          -0.098          -0.990       2.037e-01          0.4558
 257       5.635e+00      -1.034e+01       2.499e-01          -0.178          -0.136          -0.975       1.570e-01          0.6444
 258       5.489e+00      -1.034e+01       2.891e-01          -0.370          -0.231          -0.900       1.059e-01          0.7465
 259       5.415e+00      -1.034e+01       3.456e-01          -0.789          -0.428          -0.440       7.278e-02         -0.6144
 260       5.415e+00      -1.034e+01       4.127e-01          -0.796          -0.398           0.456       7.220e-02         -4.1157
 261       5.489e+00      -1.034e+01       4.693e-01          -0.375          -0.167           0.912       1.052e-01         -4.4057
 262       5.635e+00      -1.034e+01       5.085e-01          -0.177          -0.064           0.982       1.562e-01         -2.3972
 263       5.842e+00      -1.034e+01       5.363e-01          -0.098          -0.025           0.995       2.030e-01         -1.5690
 264       6.100e+00      -1.034e+01       5.541e-01          -0.044          -0.000           0.999       2.390e-01         -1.1849
 265       6.393e+00      -1.034e+01       5.606e-01          -0.002           0.019           1.000       2.618e-01         -0.9501
 266       6.703e+00      -1.034e+01       5.554e-01           0.035           0.034           0.999       2.698e-01         -0.7904
 267       7.014e+00      -1.034e+01       5.380e-01           0.078           0.050           0.996       2.627e-01         -0.6629
 268       7.307e+00      -1.034e+01       5.076e-01           0.131           0.069           0.989       2.412e-01         -0.5253
 269       7.564e+00      -1.034e+01       4.664e-01           0.189           0.087           0.978       2.061e-01         -0.3655
 270       7.772e+00      -1.034e+01       4.214e-01           0.240           0.103           0.965       1.585e-01         -0.1902
 271       7.917e+00      -1.034e+01       3.827e-01           0.280           0.114           0.953       1.002e-01         -0.0628
 272       7.992e+00      -1.034e+01       3.557e-01           0.481           0.166           0.861       3.768e-02          0.2083
Strip 11
 273       7.747e+00      -9.451e+00       3.105e-01          -0.040          -0.051          -0.998       3.811e-02          0.1087
 274       7.666e+00      -9.451e+00       3.233e-01          -0.193          -0.092          -0.977       1.145e-01          0.3461
 275       7.508e+00      -9.451e+00       3.391e-01          -0.040          -0.049          -0.998       1.796e-01          0.4411
 276       7.283e+00      -9.451e+00       3.272e-01           0.123           0.001          -0.992       2.381e-01          0.4094
 277       7.004e+00      -9.451e+00       2.787e-01           0.210           0.030          -0.977       2.862e-01          0.3047
 278       6.686e+00      -9.452e+00       2.146e-01           0.187           0.021          -0.982       3.123e-01          0.1720
 279       6.350e+00      -9.453e+00       1.682e-01           0.086          -0.018          -0.996       3.170e-01          0.1254
 280       6.013e+00      -9.453e+00       1.516e-01           0.011          -0.049          -0.999       3.068e-01          0.1895
 281       5.695e+00      -9.453e+00       1.567e-01          -0.045          -0.074          -0.996       2.804e-01          0.3021
 282       5.416e+00      -9.453e+00       1.761e-01          -0.098          -0.098          -0.990       2.384e-01          0.4470
 283       5.191e+00      -9.452e+00       2.064e-01          -0.178          -0.136          -0.975       1.837e-01          0.6358
 284       5.033e+00      -9.452e+00       2.489e-01          -0.370          -0.231          -0.900       1.240e-01          0.7545
 285       4.952e+00      -9.451e+00       3.101e-01          -0.789          -0.428          -0.441       8.521e-02         -0.5341
 286       4.952e+00      -9.450e+00       3.829e-01          -0.796          -0.399           0.456       8.445e-02         -3.9708
 287       5.033e+00      -9.449e+00       4.443e-01          -0.375          -0.167           0.912       1.230e-01         -4.2992
 288       5.191e+00      -9.449e+00       4.869e-01          -0.177          -0.064           0.982       1.827e-01         -2.3480
 289       5.416e+00      -9.448e+00       5.170e-01          -0.098          -0.025           0.995       2.375e-01         -1.5408
 290       5.695e+00      -9.448e+00       5.363e-01          -0.044          -0.000           0.999       2.797e-01         -1.1666
 291       6.013e+00      -9.448e+00       5.433e-01          -0.002           0.019           1.000       3.063e-01         -0.9375
 292       6.350e+00      -9.448e+00       5.377e-01           0.035           0.034           0.999       3.158e-01         -0.7815
 293       6.686e+00      -9.448e+00       5.188e-01           0.078           0.050           0.996       3.075e-01         -0.6566
 294       7.004e+00      -9.449e+00       4.858e-01           0.131           0.069           0.989       2.823e-01         -0.5207
 295       7.283e+00      -9.449e+00       4.412e-01           0.189           0.087           0.978       2.412e-01         -0.3623
 296       7.508e+00      -9.450e+00       3.923e-01           0.240           0.103           0.965       1.855e-01         -0.1884
 297       7.666e+00      -9.451e+00       3.504e-01           0.280           0.114           0.953       1.172e-01         -0.0618
 298       7.747e+00      -9.451e+00       3.212e-01           0.481           0.166           0.861       4.410e-02          0.2081
Strip 12
 299       7.484e+00      -8.497e+00       2.725e-01          -0.040          -0.051          -0.998       4.403e-02          0.1087
 300       7.396e+00      -8.497e+00       2.864e-01          -0.193          -0.092          -0.977       1.323e-01          0.3467
 301       7.225e+00      -8.497e+00       3.036e-01          -0.040          -0.049          -0.998       2.075e-01          0.4418
 302       6.981e+00      -8.497e+00       2.906e-01           0.123           0.001          -0.992       2.751e-01          0.4098
 303       6.679e+00      -8.498e+00       2.381e-01           0.210           0.030          -0.977       3.306e-01          0.3038
 304       6.335e+00      -8.498e+00       1.686e-01           0.187           0.021          -0.982       3.608e-01          0.1684
 305       5.970e+00      -8.499e+00       1.183e-01           0.086          -0.018          -0.996       3.662e-01          0.1192
 306       5.605e+00      -8.499e+00       1.003e-01           0.011          -0.049          -0.999       3.545e-01          0.1813
 307       5.261e+00      -8.499e+00       1.058e-01          -0.045          -0.074          -0.996       3.240e-01          0.2921
 308       4.959e+00      -8.499e+00       1.269e-01          -0.098          -0.098          -0.990       2.755e-01          0.4353
 309       4.715e+00      -8.499e+00       1.597e-01          -0.178          -0.136          -0.975       2.123e-01          0.6244
 310       4.544e+00      -8.498e+00       2.058e-01          -0.370          -0.231          -0.900       1.434e-01          0.7621
 311       4.456e+00      -8.497e+00       2.721e-01          -0.789          -0.428          -0.442       9.849e-02         -0.4412
 312       4.456e+00      -8.496e+00       3.510e-01          -0.796          -0.399           0.455       9.754e-02         -3.7973
 313       4.544e+00      -8.496e+00       4.175e-01          -0.375          -0.167           0.912       1.421e-01         -4.1694
 314       4.715e+00      -8.495e+00       4.636e-01          -0.177          -0.064           0.982       2.111e-01         -2.2874
 315       4.959e+00      -8.495e+00       4.962e-01          -0.098          -0.025           0.995       2.744e-01         -1.5057
 316       5.261e+00      -8.495e+00       5.171e-01          -0.044          -0.000           0.999       3.231e-01         -1.1431
 317       5.605e+00      -8.495e+00       5.248e-01          -0.002           0.019           1.000       3.540e-01         -0.9209
 318       5.970e+00      -8.495e+00       5.187e-01           0.035           0.034           0.999       3.649e-01         -0.7694
 319       6.335e+00      -8.495e+00       4.982e-01           0.078           0.050           0.996       3.553e-01         -0.6477
 320       6.679e+00      -8.495e+00       4.625e-01           0.131           0.069           0.989       3.262e-01         -0.5142
 321       6.981e+00      -8.496e+00       4.141e-01           0.189           0.087           0.978       2.788e-01         -0.3579
 322       7.225e+00      -8.496e+00       3.612e-01           0.240           0.103           0.965       2.144e-01         -0.1858
 323       7.396e+00      -8.497e+00       3.158e-01           0.280           0.114           0.953       1.355e-01         -0.0606
 324       7.484e+00      -8.497e+00       2.841e-01           0.481           0.166           0.861       5.097e-02          0.2078
Strip 13
 325       7.205e+00      -7.485e+00       2.322e-01          -0.040          -0.051          -0.998       5.028e-02          0.1084
 326       7.110e+00      -7.485e+00       2.472e-01          -0.193          -0.092          -0.977       1.510e-01          0.3469
 327       6.925e+00      -7.485e+00       2.658e-01          -0.040          -0.049          -0.998       2.369e-01          0.4422
 328       6.662e+00      -7.485e+00       2.518e-01           0.123           0.001          -0.992       3.141e-01          0.4096
 329       6.334e+00      -7.486e+00       1.950e-01           0.210           0.030          -0.977       3.775e-01          0.3020
 330       5.962e+00      -7.486e+00       1.198e-01           0.187           0.021          -0.982       4.118e-01          0.1636
 331       5.568e+00      -7.487e+00       6.540e-02           0.086          -0.018          -0.996       4.181e-01          0.1111
 332       5.173e+00      -7.487e+00       4.596e-02           0.011          -0.049          -0.999       4.048e-01          0.1709
 333       4.801e+00      -7.487e+00       5.193e-02          -0.045          -0.074          -0.996       3.700e-01          0.2797
 334       4.474e+00      -7.487e+00       7.472e-02          -0.097          -0.098          -0.990       3.145e-01          0.4211
 335       4.210e+00      -7.487e+00       1.102e-01          -0.178          -0.136          -0.975       2.425e-01          0.6101
 336       4.025e+00      -7.486e+00       1.600e-01          -0.370          -0.230          -0.900       1.637e-01          0.7686
 337       3.930e+00      -7.485e+00       2.318e-01          -0.788          -0.428          -0.442       1.125e-01         -0.3387
 338       3.930e+00      -7.485e+00       3.171e-01          -0.796          -0.399           0.454       1.113e-01         -3.6000
 339       4.025e+00      -7.484e+00       3.891e-01          -0.376          -0.167           0.912       1.622e-01         -4.0199
 340       4.210e+00      -7.484e+00       4.389e-01          -0.177          -0.065           0.982       2.409e-01         -2.2173
 341       4.474e+00      -7.483e+00       4.742e-01          -0.098          -0.025           0.995       3.132e-01         -1.4647
 342       4.801e+00      -7.483e+00       4.968e-01          -0.044          -0.000           0.999       3.689e-01         -1.1153
 343       5.173e+00      -7.483e+00       5.051e-01          -0.002           0.019           1.000       4.041e-01         -0.9010
 344       5.568e+00      -7.483e+00       4.985e-01           0.035           0.034           0.999       4.166e-01         -0.7547
 345       5.962e+00      -7.483e+00       4.764e-01           0.078           0.050           0.996       4.057e-01         -0.6368
 346       6.334e+00      -7.484e+00       4.377e-01           0.131           0.069           0.989       3.725e-01         -0.5063
 347       6.662e+00      -7.484e+00       3.854e-01           0.189           0.087           0.978       3.183e-01         -0.3526
 348       6.925e+00      -7.485e+00       3.282e-01           0.240           0.103           0.965       2.448e-01         -0.1827
 349       7.110e+00      -7.485e+00       2.790e-01           0.280           0.114           0.953       1.547e-01         -0.0594
 350       7.205e+00      -7.485e+00       2.447e-01           0.481           0.166           0.861       5.821e-02          0.2073
Strip 14
 351       6.912e+00      -6.423e+00       1.899e-01          -0.040          -0.051          -0.998       5.675e-02          0.1077
 352       6.810e+00      -6.422e+00       2.061e-01          -0.193          -0.092          -0.977       1.705e-01          0.3469
 353       6.610e+00      -6.422e+00       2.261e-01          -0.040          -0.049          -0.998       2.674e-01          0.4422
 354       6.325e+00      -6.422e+00       2.110e-01           0.123           0.001          -0.992       3.545e-01          0.4091
 355       5.972e+00      -6.423e+00       1.497e-01           0.210           0.030          -0.977       4.260e-01          0.2996
 356       5.571e+00      -6.423e+00       6.853e-02           0.187           0.021          -0.982       4.648e-01          0.1576
 357       5.145e+00      -6.424e+00       9.824e-03           0.086          -0.018          -0.996       4.719e-01          0.1015
 358       4.719e+00      -6.424e+00      -1.116e-02           0.011          -0.049          -0.999       4.569e-01          0.1587
 359       4.317e+00      -6.424e+00      -4.712e-03          -0.045          -0.074          -0.996       4.176e-01          0.2652
 360       3.964e+00      -6.424e+00       1.988e-02          -0.097          -0.098          -0.990       3.551e-01          0.4042
 361       3.680e+00      -6.423e+00       5.815e-02          -0.178          -0.136          -0.975       2.737e-01          0.5929
 362       3.480e+00      -6.423e+00       1.120e-01          -0.370          -0.230          -0.900       1.849e-01          0.7730
 363       3.377e+00      -6.423e+00       1.894e-01          -0.788          -0.427          -0.443       1.270e-01         -0.2283
 364       3.377e+00      -6.422e+00       2.815e-01          -0.797          -0.399           0.454       1.256e-01         -3.3804
 365       3.480e+00      -6.421e+00       3.592e-01          -0.376          -0.167           0.912       1.830e-01         -3.8514
 366       3.680e+00      -6.421e+00       4.130e-01          -0.177          -0.065           0.982       2.719e-01         -2.1379
 367       3.964e+00      -6.421e+00       4.511e-01          -0.098          -0.025           0.995       3.535e-01         -1.4180
 368       4.317e+00      -6.421e+00       4.755e-01          -0.044          -0.000           0.999       4.164e-01         -1.0837
 369       4.719e+00      -6.420e+00       4.845e-01          -0.002           0.019           1.000       4.562e-01         -0.8783
 370       5.145e+00      -6.421e+00       4.773e-01           0.035           0.034           0.999       4.702e-01         -0.7379
 371       5.571e+00      -6.421e+00       4.534e-01           0.078           0.050           0.996       4.580e-01         -0.6243
 372       5.972e+00      -6.421e+00       4.117e-01           0.131           0.069           0.989       4.205e-01         -0.4973
 373       6.325e+00      -6.421e+00       3.552e-01           0.189           0.087           0.978       3.594e-01         -0.3465
 374       6.610e+00      -6.422e+00       2.934e-01           0.240           0.103           0.965       2.764e-01         -0.1793
 375       6.810e+00      -6.422e+00       2.404e-01           0.280           0.114           0.953       1.747e-01         -0.0581
 376       6.912e+00      -6.422e+00       2.034e-01           0.481           0.166           0.861       6.572e-02          0.2067
Strip 15
 377       6.607e+00      -5.316e+00       1.458e-01          -0.040          -0.051          -0.998       6.335e-02          0.1066
 378       6.497e+00      -5.316e+00       1.632e-01          -0.193          -0.092          -0.977       1.904e-01          0.3467
 379       6.282e+00      -5.316e+00       1.848e-01          -0.040          -0.049          -0.998       2.985e-01          0.4422
 380       5.976e+00      -5.316e+00       1.685e-01           0.123           0.001          -0.992       3.957e-01          0.4083
 381       5.595e+00      -5.316e+00       1.025e-01           0.210           0.030          -0.977       4.755e-01          0.2967
 382       5.163e+00      -5.316e+00       1.516e-02           0.187           0.021          -0.982       5.188e-01          0.1506
 383       4.705e+00      -5.317e+00      -4.804e-02           0.086          -0.018          -0.996       5.268e-01          0.0904
 384       4.246e+00      -5.317e+00      -7.063e-02           0.011          -0.049          -0.999       5.101e-01          0.1446
 385       3.814e+00      -5.317e+00      -6.369e-02          -0.045          -0.074          -0.996       4.662e-01          0.2485
 386       3.434e+00      -5.317e+00      -3.721e-02          -0.097          -0.098          -0.990       3.964e-01          0.3847
 387       3.127e+00      -5.316e+00       3.983e-03          -0.178          -0.136          -0.975       3.056e-01          0.5722
 388       2.912e+00      -5.316e+00       6.191e-02          -0.370          -0.230          -0.900       2.064e-01          0.7744
 389       2.802e+00      -5.316e+00       1.453e-01          -0.788          -0.427          -0.444       1.418e-01         -0.1106
 390       2.802e+00      -5.315e+00       2.445e-01          -0.797          -0.399           0.453       1.402e-01         -3.1374
 391       2.912e+00      -5.315e+00       3.281e-01          -0.376          -0.167           0.912       2.043e-01         -3.6623
 392       3.127e+00      -5.314e+00       3.860e-01          -0.177          -0.065           0.982       3.035e-01         -2.0485
 393       3.434e+00      -5.314e+00       4.270e-01          -0.098          -0.025           0.995       3.946e-01         -1.3654
 394       3.814e+00      -5.314e+00       4.533e-01          -0.044          -0.000           0.999       4.648e-01         -1.0482
 395       4.246e+00      -5.314e+00       4.629e-01          -0.002           0.019           1.000       5.092e-01         -0.8529
 396       4.705e+00      -5.314e+00       4.553e-01           0.035           0.034           0.999       5.250e-01         -0.7194
 397       5.163e+00      -5.314e+00       4.295e-01           0.078           0.050           0.996       5.113e-01         -0.6107
 398       5.595e+00      -5.314e+00       3.847e-01           0.131           0.069           0.989       4.694e-01         -0.4876
 399       5.976e+00      -5.315e+00       3.238e-01           0.189           0.087           0.978       4.012e-01         -0.3402
 400       6.282e+00      -5.315e+00       2.573e-01           0.240           0.103           0.965       3.085e-01         -0.1758
 401       6.497e+00      -5.315e+00       2.002e-01           0.280           0.114           0.953       1.950e-01         -0.0570
 402       6.607e+00      -5.316e+00       1.603e-01           0.481           0.166           0.861       7.338e-02          0.2055
Strip 16
 403       6.292e+00      -4.173e+00       1.003e-01          -0.040          -0.051          -0.998       6.996e-02          0.1053
 404       6.174e+00      -4.173e+00       1.190e-01          -0.193          -0.092          -0.977       2.102e-01          0.3464
 405       5.943e+00      -4.172e+00       1.422e-01          -0.040          -0.049          -0.998       3.297e-01          0.4420
 406       5.614e+00      -4.172e+00       1.247e-01           0.123           0.001          -0.992       4.370e-01          0.4074
 407       5.206e+00      -4.173e+00       5.382e-02           0.210           0.030          -0.977       5.251e-01          0.2933
 408       4.742e+00      -4.173e+00      -3.997e-02           0.187           0.021          -0.982       5.729e-01          0.1427
 409       4.250e+00      -4.173e+00      -1.078e-01           0.086          -0.018          -0.996       5.817e-01          0.0778
 410       3.757e+00      -4.173e+00      -1.321e-01           0.011          -0.049          -0.999       5.633e-01          0.1288
 411       3.294e+00      -4.173e+00      -1.246e-01          -0.045          -0.074          -0.996       5.149e-01          0.2295
 412       2.885e+00      -4.173e+00      -9.619e-02          -0.097          -0.098          -0.990       4.378e-01          0.3622
 413       2.557e+00      -4.173e+00      -5.196e-02          -0.177          -0.136          -0.975       3.375e-01          0.5474
 414       2.326e+00      -4.173e+00       1.022e-02          -0.370          -0.230          -0.900       2.280e-01          0.7715
 415       2.207e+00      -4.173e+00       9.978e-02          -0.788          -0.427          -0.444       1.567e-01          0.0154
 416       2.207e+00      -4.172e+00       2.062e-01          -0.797          -0.399           0.453       1.548e-01         -2.8655
 417       2.326e+00      -4.172e+00       2.960e-01          -0.376          -0.167           0.911       2.255e-01         -3.4468
 418       2.557e+00      -4.172e+00       3.582e-01          -0.177          -0.065           0.982       3.351e-01         -1.9461
 419       2.885e+00      -4.171e+00       4.022e-01          -0.098          -0.025           0.995       4.358e-01         -1.3057
 420       3.294e+00      -4.171e+00       4.304e-01          -0.044          -0.000           0.999       5.133e-01         -1.0084
 421       3.757e+00      -4.171e+00       4.407e-01          -0.002           0.019           1.000       5.624e-01         -0.8252
 422       4.250e+00      -4.171e+00       4.325e-01           0.035           0.034           0.999       5.797e-01         -0.6997
 423       4.742e+00      -4.171e+00       4.048e-01           0.078           0.050           0.996       5.646e-01         -0.5967
 424       5.206e+00      -4.172e+00       3.567e-01           0.131           0.069           0.989       5.184e-01         -0.4780
 425       5.614e+00      -4.172e+00       2.913e-01           0.189           0.087           0.978       4.431e-01         -0.3340
 426       5.943e+00      -4.172e+00       2.200e-01           0.240           0.103           0.965       3.408e-01         -0.1726
 427       6.174e+00      -4.172e+00       1.587e-01           0.280           0.114           0.953       2.154e-01         -0.0564
 428       6.292e+00      -4.173e+00       1.159e-01           0.481           0.166           0.861       8.105e-02          0.2039
Strip 17
 429       5.969e+00      -3.001e+00       5.362e-02          -0.040          -0.051          -0.998       7.646e-02          0.1031
 430       5.842e+00      -3.001e+00       7.363e-02          -0.193          -0.092          -0.977       2.297e-01          0.3457
 431       5.596e+00      -3.001e+00       9.847e-02          -0.040          -0.049          -0.998       3.603e-01          0.4417
 432       5.244e+00      -3.001e+00       7.971e-02           0.123           0.001          -0.992       4.775e-01          0.4064
 433       4.807e+00      -3.001e+00       3.899e-03           0.210           0.030          -0.977       5.737e-01          0.2894
 434       4.311e+00      -3.001e+00      -9.646e-02           0.187           0.021          -0.982       6.260e-01          0.1338
 435       3.784e+00      -3.002e+00      -1.691e-01           0.086          -0.018          -0.996       6.357e-01          0.0640
 436       3.257e+00      -3.002e+00      -1.950e-01           0.011          -0.049          -0.999       6.155e-01          0.1114
 437       2.761e+00      -3.002e+00      -1.870e-01          -0.045          -0.074          -0.996       5.627e-01          0.2085
 438       2.324e+00      -3.001e+00      -1.566e-01          -0.097          -0.098          -0.990       4.784e-01          0.3367
 439       1.972e+00      -3.001e+00      -1.093e-01          -0.177          -0.136          -0.975       3.689e-01          0.5178
 440       1.725e+00      -3.001e+00      -4.276e-02          -0.370          -0.230          -0.900       2.492e-01          0.7630
 441       1.598e+00      -3.001e+00       5.309e-02          -0.787          -0.427          -0.444       1.713e-01          0.1533
 442       1.598e+00      -3.001e+00       1.670e-01          -0.797          -0.400           0.452       1.691e-01         -2.5509
 443       1.725e+00      -3.000e+00       2.630e-01          -0.376          -0.167           0.911       2.464e-01         -3.1913
 444       1.972e+00      -3.000e+00       3.296e-01          -0.177          -0.065           0.982       3.662e-01         -1.8239
 445       2.324e+00      -3.000e+00       3.767e-01          -0.098          -0.025           0.995       4.762e-01         -1.2350
 446       2.761e+00      -3.000e+00       4.069e-01          -0.044          -0.000           0.999       5.609e-01         -0.9630
 447       3.257e+00      -3.000e+00       4.180e-01          -0.002           0.019           1.000       6.145e-01         -0.7954
 448       3.784e+00      -3.000e+00       4.091e-01           0.035           0.034           0.999       6.335e-01         -0.6803
 449       4.311e+00      -3.000e+00       3.796e-01           0.078           0.050           0.996       6.170e-01         -0.5843
 450       4.807e+00      -3.000e+00       3.280e-01           0.131           0.069           0.989       5.665e-01         -0.4705
 451       5.244e+00      -3.000e+00       2.581e-01           0.189           0.087           0.978       4.842e-01         -0.3299
 452       5.596e+00      -3.001e+00       1.817e-01           0.240           0.103           0.965       3.724e-01         -0.1711
 453       5.842e+00      -3.001e+00       1.161e-01           0.280           0.114           0.953       2.354e-01         -0.0572
 454       5.969e+00      -3.001e+00       7.032e-02           0.481           0.166           0.861       8.858e-02          0.2007
Strip 18
 455       5.641e+00      -1.809e+00       6.144e-03          -0.040          -0.051          -0.998       8.269e-02          0.1002
 456       5.505e+00      -1.809e+00       2.749e-02          -0.193          -0.092          -0.977       2.485e-01          0.3448
 457       5.242e+00      -1.809e+00       5.399e-02          -0.040          -0.049          -0.998       3.896e-01          0.4413
 458       4.867e+00      -1.809e+00       3.398e-02           0.123           0.001          -0.992       5.164e-01          0.4047
 459       4.401e+00      -1.809e+00      -4.689e-02           0.210           0.030          -0.977       6.204e-01          0.2843
 460       3.872e+00      -1.809e+00      -1.539e-01           0.187           0.022          -0.982       6.769e-01          0.1233
 461       3.310e+00      -1.809e+00      -2.314e-01           0.086          -0.018          -0.996       6.874e-01          0.0492
 462       2.748e+00      -1.809e+00      -2.591e-01           0.011          -0.049          -0.999       6.657e-01          0.0941
 463       2.218e+00      -1.809e+00      -2.506e-01          -0.045          -0.074          -0.996       6.085e-01          0.1880
 464       1.752e+00      -1.809e+00      -2.181e-01          -0.097          -0.098          -0.990       5.174e-01          0.3103
 465       1.377e+00      -1.809e+00      -1.676e-01          -0.177          -0.136          -0.975       3.990e-01          0.4840
 466       1.114e+00      -1.809e+00      -9.666e-02          -0.370          -0.230          -0.900       2.696e-01          0.7478
 467       9.782e-01      -1.809e+00       5.579e-03          -0.787          -0.427          -0.445       1.853e-01          0.3152
 468       9.782e-01      -1.809e+00       1.271e-01          -0.798          -0.400           0.452       1.828e-01         -2.1585
 469       1.114e+00      -1.808e+00       2.295e-01          -0.376          -0.167           0.911       2.664e-01         -2.8591
 470       1.377e+00      -1.808e+00       3.005e-01          -0.177          -0.065           0.982       3.960e-01         -1.6633
 471       1.752e+00      -1.808e+00       3.508e-01          -0.098          -0.025           0.995       5.149e-01         -1.1446
 472       2.218e+00      -1.808e+00       3.830e-01          -0.044          -0.000           0.999       6.066e-01         -0.9087
 473       2.748e+00      -1.808e+00       3.948e-01          -0.002           0.019           1.000       6.646e-01         -0.7642
 474       3.310e+00      -1.808e+00       3.854e-01           0.035           0.034           0.999       6.852e-01         -0.6647
 475       3.872e+00      -1.808e+00       3.538e-01           0.078           0.050           0.996       6.673e-01         -0.5788
 476       4.401e+00      -1.808e+00       2.988e-01           0.131           0.069           0.989       6.127e-01         -0.4707
 477       4.867e+00      -1.808e+00       2.243e-01           0.189           0.087           0.978       5.237e-01         -0.3325
 478       5.242e+00      -1.809e+00       1.428e-01           0.240           0.103           0.965       4.028e-01         -0.1744
 479       5.505e+00      -1.809e+00       7.281e-02           0.280           0.114           0.953       2.546e-01         -0.0611
 480       5.641e+00      -1.809e+00       2.396e-02           0.481           0.166           0.861       9.581e-02          0.1957
Strip 19
 481       5.309e+00      -6.043e-01      -4.182e-02          -0.040          -0.051          -0.998       8.851e-02          0.0974
 482       5.165e+00      -6.043e-01      -1.913e-02          -0.193          -0.092          -0.977       2.660e-01          0.3443
 483       4.885e+00      -6.043e-01       9.042e-03          -0.040          -0.049          -0.998       4.171e-01          0.4406
 484       4.486e+00      -6.043e-01      -1.223e-02           0.123           0.001          -0.992       5.527e-01          0.3984
 485       3.991e+00      -6.043e-01      -9.821e-02           0.210           0.030          -0.977       6.641e-01          0.2696
 486       3.428e+00      -6.044e-01      -2.120e-01           0.187           0.022          -0.982       7.246e-01          0.1043
 487       2.830e+00      -6.044e-01      -2.944e-01           0.086          -0.018          -0.996       7.358e-01          0.0355
 488       2.233e+00      -6.044e-01      -3.238e-01           0.011          -0.049          -0.999       7.126e-01          0.0889
 489       1.670e+00      -6.044e-01      -3.148e-01          -0.045          -0.074          -0.996       6.514e-01          0.1855
 490       1.175e+00      -6.044e-01      -2.803e-01          -0.097          -0.098          -0.990       5.539e-01          0.3034
 491       7.756e-01      -6.044e-01      -2.266e-01          -0.177          -0.136          -0.975       4.271e-01          0.4644
 492       4.959e-01      -6.044e-01      -1.511e-01          -0.370          -0.230          -0.900       2.886e-01          0.7277
 493       3.519e-01      -6.043e-01      -4.242e-02          -0.787          -0.427          -0.445       1.983e-01          0.5155
 494       3.519e-01      -6.043e-01       8.674e-02          -0.798          -0.400           0.452       1.957e-01         -1.5550
 495       4.959e-01      -6.042e-01       1.957e-01          -0.376          -0.167           0.911       2.851e-01         -2.2858
 496       7.756e-01      -6.042e-01       2.712e-01          -0.177          -0.065           0.982       4.238e-01         -1.3741
 497       1.175e+00      -6.041e-01       3.246e-01          -0.098          -0.025           0.995       5.512e-01         -0.9996
 498       1.670e+00      -6.041e-01       3.588e-01          -0.044          -0.000           0.999       6.493e-01         -0.8399
 499       2.233e+00      -6.041e-01       3.714e-01          -0.002           0.019           1.000       7.114e-01         -0.7355
 500       2.830e+00      -6.041e-01       3.614e-01           0.035           0.034           0.999       7.334e-01         -0.6630
 501       3.428e+00      -6.041e-01       3.278e-01           0.078           0.050           0.996       7.144e-01         -0.5960
 502       3.991e+00      -6.042e-01       2.694e-01           0.131           0.069           0.989       6.559e-01         -0.4976
 503       4.486e+00      -6.042e-01       1.901e-01           0.189           0.087           0.978       5.607e-01         -0.3592
 504       4.885e+00      -6.042e-01       1.034e-01           0.240           0.103           0.965       4.312e-01         -0.1952
 505       5.165e+00      -6.043e-01       2.905e-02           0.280           0.114           0.953       2.726e-01         -0.0748
 506       5.309e+00      -6.043e-01      -2.288e-02           0.481           0.166           0.861       1.026e-01          0.1853
Strip 20
 507       5.309e+00       6.043e-01      -4.182e-02          -0.040           0.051          -0.998       8.851e-02          0.0974
 508       5.165e+00       6.043e-01      -1.913e-02          -0.193           0.092          -0.977       2.660e-01          0.3443
 509       4.885e+00       6.043e-01       9.042e-03          -0.040           0.049          -0.998       4.171e-01          0.4406
 510       4.486e+00       6.043e-01      -1.223e-02           0.123          -0.001          -0.992       5.527e-01          0.3984
 511       3.991e+00       6.043e-01      -9.821e-02           0.210          -0.030          -0.977       6.641e-01          0.2696
 512       3.428e+00       6.044e-01      -2.120e-01           0.187          -0.022          -0.982       7.246e-01          0.1043
 513       2.830e+00       6.044e-01      -2.944e-01           0.086           0.018          -0.996       7.358e-01          0.0355
 514       2.233e+00       6.044e-01      -3.238e-01           0.011           0.049          -0.999       7.126e-01          0.0889
 515       1.670e+00       6.044e-01      -3.148e-01          -0.045           0.074          -0.996       6.514e-01          0.1855
 516       1.175e+00       6.044e-01      -2.803e-01          -0.097           0.098          -0.990       5.539e-01          0.3034
 517       7.756e-01       6.044e-01      -2.266e-01          -0.177           0.136          -0.975       4.271e-01          0.4644
 518       4.959e-01       6.044e-01      -1.511e-01          -0.370           0.230          -0.900       2.886e-01          0.7277
 519       3.519e-01       6.043e-01      -4.242e-02          -0.787           0.427          -0.445       1.983e-01          0.5155
 520       3.519e-01       6.043e-01       8.674e-02          -0.798           0.400           0.452       1.957e-01         -1.5550
 521       4.959e-01       6.042e-01       1.957e-01          -0.376           0.167           0.911       2.851e-01         -2.2858
 522       7.756e-01       6.042e-01       2.712e-01          -0.177           0.065           0.982       4.238e-01         -1.3741
 523       1.175e+00       6.041e-01       3.246e-01          -0.098           0.025           0.995       5.512e-01         -0.9996
 524       1.670e+00       6.041e-01       3.588e-01          -0.044           0.000           0.999       6.493e-01         -0.8399
 525       2.233e+00       6.041e-01       3.714e-01          -0.002          -0.019           1.000       7.114e-01         -0.7355
 526       2.830e+00       6.041e-01       3.614e-01           0.035          -0.034           0.999       7.334e-01         -0.6630
 527       3.428e+00       6.041e-01       3.278e-01           0.078          -0.050           0.996       7.144e-01         -0.5960
 528       3.991e+00       6.042e-01       2.694e-01           0.131          -0.069           0.989       6.559e-01         -0.4976
 529       4.486e+00       6.042e-01       1.901e-01           0.189          -0.087           0.978       5.607e-01         -0.3592
 530       4.885e+00       6.042e-01       1.034e-01           0.240          -0.103           0.965       4.312e-01         -0.1952
 531       5.165e+00       6.043e-01       2.905e-02           0.280          -0.114           0.953       2.726e-01         -0.0748
 532       5.309e+00       6.043e-01      -2.288e-02           0.481          -0.166           0.861       1.026e-01          0.1853
Strip 21
 533       5.641e+00       1.809e+00       6.144e-03          -0.040           0.051          -0.998       8.269e-02          0.1002
 534       5.505e+00       1.809e+00       2.749e-02          -0.193           0.092          -0.977       2.485e-01          0.3448
 535       5.242e+00       1.809e+00       5.399e-02          -0.040           0.049          -0.998       3.896e-01          0.4413
 536       4.867e+00       1.809e+00       3.398e-02           0.123          -0.001          -0.992       5.164e-01          0.4047
 537       4.401e+00       1.809e+00      -4.689e-02           0.210          -0.030          -0.977       6.204e-01          0.2843
 538       3.872e+00       1.809e+00      -1.539e-01           0.187          -0.022          -0.982       6.769e-01          0.1233
 539       3.310e+00       1.809e+00      -2.314e-01           0.086           0.018          -0.996       6.874e-01          0.0492
 540       2.748e+00       1.809e+00      -2.591e-01           0.011           0.049          -0.999       6.657e-01          0.0941
 541       2.218e+00       1.809e+00      -2.506e-01          -0.045           0.074          -0.996       6.085e-01          0.1880
 542       1.752e+00       1.809e+00      -2.181e-01          -0.097           0.098          -0.990       5.174e-01          0.3103
 543       1.377e+00       1.809e+00      -1.676e-01          -0.177           0.136          -0.975       3.990e-01          0.4840
 544       1.114e+00       1.809e+00      -9.666e-02          -0.370           0.230          -0.900       2.696e-01          0.7478
 545       9.782e-01       1.809e+00       5.579e-03          -0.787           0.427          -0.445       1.853e-01          0.3152
 546       9.782e-01       1.809e+00       1.271e-01          -0.798           0.400           0.452       1.828e-01         -2.1585
 547       1.114e+00       1.808e+00       2.295e-01          -0.376           0.167           0.911       2.664e-01         -2.8591
 548       1.377e+00       1.808e+00       3.005e-01          -0.177           0.065           0.982       3.960e-01         -1.6633
 549       1.752e+00       1.808e+00       3.508e-01          -0.098           0.025           0.995       5.149e-01         -1.1446
 550       2.218e+00       1.808e+00       3.830e-01          -0.044           0.000           0.999       6.066e-01         -0.9087
 551       2.748e+00       1.808e+00       3.948e-01          -0.002          -0.019           1.000       6.646e-01         -0.7642
 552       3.310e+00       1.808e+00       3.854e-01           0.035          -0.034           0.999       6.852e-01         -0.6647
 553       3.872e+00       1.808e+00       3.538e-01           0.078          -0.050           0.996       6.673e-01         -0.5788
 554       4.401e+00       1.808e+00       2.988e-01           0.131          -0.069           0.989       6.127e-01         -0.4707
 555       4.867e+00       1.808e+00       2.243e-01           0.189          -0.087           0.978       5.237e-01         -0.3325
 556       5.242e+00       1.809e+00       1.428e-01           0.240          -0.103           0.965       4.028e-01         -0.1744
 557       5.505e+00       1.809e+00       7.281e-02           0.280          -0.114           0.953       2.546e-01         -0.0611
 558       5.641e+00       1.809e+00       2.396e-02           0.481          -0.166           0.861       9.581e-02          0.1957
Strip 22
 559       5.969e+00       3.001e+00       5.362e-02          -0.040           0.051          -0.998       7.646e-02          0.1031
 560       5.842e+00       3.001e+00       7.363e-02          -0.193           0.092          -0.977       2.297e-01          0.3457
 561       5.596e+00       3.001e+00       9.847e-02          -0.040           0.049          -0.998       3.603e-01          0.4417
 562       5.244e+00       3.001e+00       7.971e-02           0.123          -0.001          -0.992       4.775e-01          0.4064
 563       4.807e+00       3.001e+00       3.899e-03           0.210          -0.030          -0.977       5.737e-01          0.2894
 564       4.311e+00       3.001e+00      -9.646e-02           0.187          -0.021          -0.982       6.260e-01          0.1338
 565       3.784e+00       3.002e+00      -1.691e-01           0.086           0.018          -0.996       6.357e-01          0.0640
 566       3.257e+00       3.002e+00      -1.950e-01           0.011           0.049          -0.999       6.155e-01          0.1114
 567       2.761e+00       3.002e+00      -1.870e-01          -0.045           0.074          -0.996       5.627e-01          0.2085
 568       2.324e+00       3.001e+00      -1.566e-01          -0.097           0.098          -0.990       4.784e-01          0.3367
[...]
 852       7.588e+00       1.314e+01       3.497e-01           0.011           0.049          -0.999       1.197e-01          0.1626
 853       7.373e+00       1.314e+01       3.531e-01          -0.045           0.074          -0.996       1.093e-01          0.2832
 854       7.183e+00       1.314e+01       3.663e-01          -0.098           0.098          -0.990       9.290e-02          0.4376
 855       7.031e+00       1.314e+01       3.868e-01          -0.178           0.136          -0.975       7.157e-02          0.6335
 856       6.924e+00       1.314e+01       4.156e-01          -0.371           0.231          -0.899       4.825e-02          0.7307
 857       6.869e+00       1.314e+01       4.571e-01          -0.791           0.429          -0.437       3.315e-02         -0.6820
 858       6.869e+00       1.314e+01       5.064e-01          -0.794           0.397           0.460       3.302e-02         -4.1937
 859       6.924e+00       1.314e+01       5.479e-01          -0.374           0.166           0.912       4.809e-02         -4.4384
 860       7.031e+00       1.313e+01       5.767e-01          -0.177           0.064           0.982       7.133e-02         -2.3968
 861       7.183e+00       1.313e+01       5.971e-01          -0.098           0.025           0.995       9.267e-02         -1.5517
 862       7.373e+00       1.313e+01       6.102e-01          -0.044           0.000           0.999       1.091e-01         -1.1574
 863       7.588e+00       1.313e+01       6.150e-01          -0.002          -0.019           1.000       1.195e-01         -0.9163
 864       7.816e+00       1.313e+01       6.112e-01           0.035          -0.034           0.999       1.231e-01         -0.7544
 865       8.044e+00       1.313e+01       5.984e-01           0.078          -0.050           0.996       1.199e-01         -0.6296
 866       8.259e+00       1.313e+01       5.761e-01           0.131          -0.069           0.989       1.100e-01         -0.4993
 867       8.448e+00       1.314e+01       5.458e-01           0.189          -0.088           0.978       9.400e-02         -0.3495
 868       8.601e+00       1.314e+01       5.127e-01           0.241          -0.103           0.965       7.228e-02         -0.1831
 869       8.708e+00       1.314e+01       4.843e-01           0.280          -0.114           0.953       4.568e-02         -0.0636
 870       8.763e+00       1.314e+01       4.645e-01           0.482          -0.166           0.860       1.717e-02          0.2086
Strip 34
 871       8.897e+00       1.362e+01       4.766e-01          -0.040           0.051          -0.998       1.153e-02          0.0745
 872       8.845e+00       1.362e+01       4.847e-01          -0.193           0.092          -0.977       3.460e-02          0.2970
 873       8.745e+00       1.362e+01       4.948e-01          -0.040           0.049          -0.998       5.432e-02          0.3813
 874       8.602e+00       1.362e+01       4.872e-01           0.123          -0.001          -0.992       7.209e-02          0.3435
 875       8.425e+00       1.362e+01       4.565e-01           0.210          -0.030          -0.977       8.669e-02          0.2351
 876       8.223e+00       1.362e+01       4.157e-01           0.187          -0.021          -0.982       9.458e-02          0.0999
 877       8.009e+00       1.363e+01       3.863e-01           0.086           0.018          -0.996       9.596e-02          0.0534
 878       7.795e+00       1.363e+01       3.758e-01           0.011           0.049          -0.999       9.284e-02          0.1225
 879       7.594e+00       1.363e+01       3.790e-01          -0.045           0.074          -0.996       8.482e-02          0.2452
 880       7.416e+00       1.363e+01       3.913e-01          -0.098           0.098          -0.990       7.207e-02          0.4037
 881       7.273e+00       1.362e+01       4.105e-01          -0.178           0.136          -0.975       5.551e-02          0.6069
 882       7.173e+00       1.362e+01       4.375e-01          -0.371           0.231          -0.899       3.742e-02          0.7318
 883       7.122e+00       1.362e+01       4.764e-01          -0.791           0.429          -0.436       2.570e-02         -0.5881
 884       7.122e+00       1.362e+01       5.226e-01          -0.793           0.397           0.461       2.563e-02         -3.9972
 885       7.173e+00       1.362e+01       5.616e-01          -0.374           0.166           0.912       3.733e-02         -4.2751
 886       7.273e+00       1.362e+01       5.886e-01          -0.177           0.064           0.982       5.535e-02         -2.3064
 887       7.416e+00       1.362e+01       6.077e-01          -0.098           0.025           0.995       7.190e-02         -1.4846
 888       7.594e+00       1.362e+01       6.199e-01          -0.044           0.000           0.999       8.464e-02         -1.0989
 889       7.795e+00       1.362e+01       6.244e-01          -0.002          -0.019           1.000       9.268e-02         -0.8633
 890       8.009e+00       1.362e+01       6.208e-01           0.035          -0.034           0.999       9.551e-02         -0.7079
 891       8.223e+00       1.362e+01       6.088e-01           0.078          -0.050           0.996       9.299e-02         -0.5914
 892       8.425e+00       1.362e+01       5.879e-01           0.131          -0.069           0.989       8.534e-02         -0.4723
 893       8.602e+00       1.362e+01       5.596e-01           0.189          -0.088           0.978       7.292e-02         -0.3348
 894       8.745e+00       1.362e+01       5.286e-01           0.241          -0.103           0.965       5.606e-02         -0.1789
 895       8.845e+00       1.362e+01       5.020e-01           0.280          -0.114           0.953       3.543e-02         -0.0675
 896       8.897e+00       1.362e+01       4.834e-01           0.482          -0.166           0.860       1.332e-02          0.2043
Strip 35
 897       9.005e+00       1.402e+01       4.923e-01          -0.040           0.051          -0.998       8.559e-03          0.0359
 898       8.956e+00       1.402e+01       4.999e-01          -0.193           0.092          -0.977       2.569e-02          0.2473
 899       8.861e+00       1.401e+01       5.095e-01          -0.040           0.049          -0.998       4.033e-02          0.3246
 900       8.726e+00       1.402e+01       5.023e-01           0.123          -0.001          -0.992       5.353e-02          0.2851
 901       8.558e+00       1.402e+01       4.732e-01           0.210          -0.030          -0.977       6.438e-02          0.1770
 902       8.368e+00       1.402e+01       4.347e-01           0.187          -0.021          -0.982       7.024e-02          0.0407
 903       8.165e+00       1.402e+01       4.068e-01           0.086           0.018          -0.996       7.126e-02         -0.0095
 904       7.963e+00       1.402e+01       3.968e-01           0.011           0.049          -0.999       6.894e-02          0.0561
 905       7.772e+00       1.402e+01       3.999e-01          -0.045           0.074          -0.996       6.298e-02          0.1781
 906       7.604e+00       1.402e+01       4.116e-01          -0.098           0.098          -0.990       5.350e-02          0.3409
 907       7.469e+00       1.402e+01       4.297e-01          -0.178           0.137          -0.975       4.121e-02          0.5550
 908       7.374e+00       1.402e+01       4.553e-01          -0.372           0.231          -0.899       2.777e-02          0.7256
 909       7.326e+00       1.402e+01       4.920e-01          -0.792           0.429          -0.435       1.908e-02         -0.4349
 910       7.326e+00       1.401e+01       5.357e-01          -0.793           0.397           0.462       1.904e-02         -3.6720
 911       7.374e+00       1.401e+01       5.726e-01          -0.374           0.166           0.912       2.773e-02         -4.0041
 912       7.469e+00       1.401e+01       5.981e-01          -0.177           0.064           0.982       4.111e-02         -2.1541
 913       7.604e+00       1.401e+01       6.162e-01          -0.098           0.025           0.995       5.340e-02         -1.3711
 914       7.772e+00       1.401e+01       6.278e-01          -0.044           0.000           0.999       6.285e-02         -1.0018
 915       7.963e+00       1.401e+01       6.321e-01          -0.002          -0.019           1.000       6.882e-02         -0.7799
 916       8.165e+00       1.401e+01       6.287e-01           0.035          -0.034           0.999       7.092e-02         -0.6403
 917       8.368e+00       1.401e+01       6.173e-01           0.078          -0.050           0.996       6.904e-02         -0.5422
 918       8.558e+00       1.401e+01       5.975e-01           0.131          -0.069           0.989       6.336e-02         -0.4433
 919       8.726e+00       1.401e+01       5.707e-01           0.189          -0.088           0.978       5.414e-02         -0.3271
 920       8.861e+00       1.401e+01       5.414e-01           0.241          -0.103           0.965       4.162e-02         -0.1893
 921       8.956e+00       1.401e+01       5.162e-01           0.280          -0.114           0.953       2.630e-02         -0.0911
 922       9.005e+00       1.402e+01       4.987e-01           0.482          -0.166           0.860       9.887e-03          0.1817
Strip 36
 923       9.087e+00       1.431e+01       5.041e-01          -0.040           0.051          -0.998       5.890e-03         -0.0799
 924       9.040e+00       1.431e+01       5.114e-01          -0.193           0.092          -0.977       1.768e-02          0.1087
 925       8.949e+00       1.431e+01       5.205e-01          -0.040           0.049          -0.998       2.775e-02          0.1779
 926       8.820e+00       1.431e+01       5.136e-01           0.123          -0.001          -0.992       3.684e-02          0.1493
 927       8.659e+00       1.431e+01       4.858e-01           0.210          -0.030          -0.977       4.431e-02          0.0614
 928       8.477e+00       1.431e+01       4.490e-01           0.187          -0.021          -0.982       4.834e-02         -0.0562
 929       8.283e+00       1.431e+01       4.223e-01           0.086           0.018          -0.996       4.904e-02         -0.0995
 930       8.090e+00       1.432e+01       4.128e-01           0.011           0.049          -0.999       4.744e-02         -0.0404
 931       7.907e+00       1.432e+01       4.157e-01          -0.045           0.074          -0.996       4.333e-02          0.0687
 932       7.747e+00       1.431e+01       4.269e-01          -0.098           0.098          -0.990       3.682e-02          0.2242
 933       7.617e+00       1.431e+01       4.443e-01          -0.178           0.137          -0.975       2.835e-02          0.4484
 934       7.527e+00       1.431e+01       4.687e-01          -0.372           0.231          -0.899       1.910e-02          0.6837
 935       7.480e+00       1.431e+01       5.039e-01          -0.792           0.429          -0.434       1.312e-02         -0.2369
 936       7.480e+00       1.431e+01       5.457e-01          -0.793           0.397           0.463       1.311e-02         -3.2063
 937       7.527e+00       1.431e+01       5.810e-01          -0.374           0.166           0.913       1.909e-02         -3.6035
 938       7.617e+00       1.431e+01       6.054e-01          -0.177           0.064           0.982       2.829e-02         -1.9211
 939       7.747e+00       1.431e+01       6.227e-01          -0.098           0.025           0.995       3.675e-02         -1.1991
 940       7.907e+00       1.431e+01       6.338e-01          -0.044           0.000           0.999       4.325e-02         -0.8651
 941       8.090e+00       1.431e+01       6.378e-01          -0.002          -0.019           1.000       4.736e-02         -0.6787
 942       8.283e+00       1.431e+01       6.346e-01           0.035          -0.034           0.999       4.880e-02         -0.5753
 943       8.477e+00       1.431e+01       6.237e-01           0.078          -0.050           0.996       4.751e-02         -0.5135
 944       8.659e+00       1.431e+01       6.048e-01           0.131          -0.069           0.989       4.360e-02         -0.4519
 945       8.820e+00       1.431e+01       5.791e-01           0.189          -0.088           0.978       3.725e-02         -0.3743
 946       8.949e+00       1.431e+01       5.511e-01           0.241          -0.103           0.965       2.864e-02         -0.2724
 947       9.040e+00       1.431e+01       5.270e-01           0.280          -0.114           0.953       1.810e-02         -0.1998
 948       9.087e+00       1.431e+01       5.102e-01           0.483          -0.166           0.860       6.802e-03          0.0774
Strip 37
 949       9.141e+00       1.451e+01       5.120e-01          -0.040           0.051          -0.998       3.443e-03         -0.6398
 950       9.096e+00       1.451e+01       5.191e-01          -0.193           0.092          -0.977       1.033e-02         -0.5176
 951       9.008e+00       1.451e+01       5.280e-01          -0.040           0.049          -0.998       1.622e-02         -0.3995
 952       8.883e+00       1.451e+01       5.213e-01           0.123          -0.001          -0.992       2.154e-02         -0.2663
 953       8.727e+00       1.451e+01       4.943e-01           0.210          -0.030          -0.977       2.590e-02         -0.1872
 954       8.550e+00       1.451e+01       4.586e-01           0.187          -0.021          -0.982       2.826e-02         -0.2039
 955       8.362e+00       1.451e+01       4.327e-01           0.086           0.018          -0.996       2.867e-02         -0.2070
 956       8.175e+00       1.451e+01       4.235e-01           0.011           0.049          -0.999       2.773e-02         -0.1496
 957       7.998e+00       1.451e+01       4.263e-01          -0.045           0.074          -0.996       2.533e-02         -0.0690
 958       7.842e+00       1.451e+01       4.371e-01          -0.098           0.098          -0.990       2.152e-02          0.0438
 959       7.717e+00       1.451e+01       4.540e-01          -0.178           0.137          -0.975       1.657e-02          0.2342
 960       7.629e+00       1.451e+01       4.777e-01          -0.372           0.231          -0.899       1.116e-02          0.5120
 961       7.583e+00       1.451e+01       5.118e-01          -0.792           0.429          -0.434       7.667e-03         -0.0918
 962       7.583e+00       1.451e+01       5.523e-01          -0.793           0.397           0.463       7.662e-03         -2.6017
 963       7.629e+00       1.451e+01       5.865e-01          -0.374           0.166           0.913       1.116e-02         -3.0341
 964       7.717e+00       1.451e+01       6.102e-01          -0.177           0.064           0.982       1.654e-02         -1.5813
 965       7.842e+00       1.451e+01       6.270e-01          -0.098           0.025           0.995       2.148e-02         -0.9765
 966       7.998e+00       1.451e+01       6.377e-01          -0.044           0.000           0.999       2.528e-02         -0.7282
 967       8.175e+00       1.451e+01       6.417e-01          -0.002          -0.019           1.000       2.768e-02         -0.6072
 968       8.362e+00       1.451e+01       6.385e-01           0.035          -0.034           0.999       2.852e-02         -0.5555
 969       8.550e+00       1.451e+01       6.280e-01           0.078          -0.050           0.996       2.777e-02         -0.5571
 970       8.727e+00       1.451e+01       6.097e-01           0.131          -0.069           0.989       2.548e-02         -0.6051
 971       8.883e+00       1.451e+01       5.848e-01           0.189          -0.088           0.978       2.177e-02         -0.6966
 972       9.008e+00       1.451e+01       5.576e-01           0.241          -0.103           0.965       1.674e-02         -0.7815
 973       9.096e+00       1.451e+01       5.342e-01           0.280          -0.114           0.953       1.058e-02         -0.8287
 974       9.141e+00       1.451e+01       5.179e-01           0.483          -0.166           0.860       3.975e-03         -0.5614
Strip 38
 975       9.169e+00       1.461e+01       5.160e-01          -0.040           0.051          -0.998       1.132e-03         -1.3393
 976       9.124e+00       1.461e+01       5.230e-01          -0.193           0.092          -0.977       3.397e-03         -1.3278
 977       9.038e+00       1.461e+01       5.317e-01          -0.040           0.049          -0.998       5.335e-03         -1.1708
 978       8.914e+00       1.461e+01       5.251e-01           0.123          -0.001          -0.992       7.082e-03         -0.8272
 979       8.761e+00       1.461e+01       4.985e-01           0.210          -0.030          -0.977       8.519e-03         -0.5065
 980       8.587e+00       1.461e+01       4.634e-01           0.187          -0.021          -0.982       9.294e-03         -0.3505
 981       8.402e+00       1.461e+01       4.379e-01           0.086           0.018          -0.996       9.427e-03         -0.2765
 982       8.217e+00       1.461e+01       4.288e-01           0.011           0.049          -0.999       9.119e-03         -0.2111
 983       8.043e+00       1.461e+01       4.316e-01          -0.045           0.074          -0.996       8.330e-03         -0.1502
 984       7.890e+00       1.461e+01       4.423e-01          -0.098           0.098          -0.990       7.076e-03         -0.0720
 985       7.766e+00       1.461e+01       4.589e-01          -0.178           0.137          -0.974       5.449e-03          0.0738
 986       7.680e+00       1.461e+01       4.822e-01          -0.372           0.231          -0.899       3.671e-03          0.3361
 987       7.635e+00       1.461e+01       5.158e-01          -0.792           0.429          -0.433       2.521e-03          0.0489
 988       7.635e+00       1.461e+01       5.557e-01          -0.792           0.397           0.463       2.520e-03         -1.8828
 989       7.680e+00       1.461e+01       5.893e-01          -0.374           0.166           0.913       3.671e-03         -2.3633
 990       7.766e+00       1.461e+01       6.127e-01          -0.177           0.064           0.982       5.440e-03         -1.2352
 991       7.890e+00       1.461e+01       6.292e-01          -0.098           0.025           0.995       7.065e-03         -0.8009
 992       8.043e+00       1.461e+01       6.397e-01          -0.044           0.000           0.999       8.315e-03         -0.6435
 993       8.217e+00       1.461e+01       6.436e-01          -0.002          -0.019           1.000       9.103e-03         -0.5661
 994       8.402e+00       1.461e+01       6.405e-01           0.035          -0.034           0.999       9.380e-03         -0.5344
 995       8.587e+00       1.461e+01       6.302e-01           0.078          -0.050           0.996       9.131e-03         -0.5548
 996       8.761e+00       1.461e+01       6.121e-01           0.131          -0.069           0.989       8.380e-03         -0.6671
 997       8.914e+00       1.461e+01       5.876e-01           0.189          -0.088           0.978       7.159e-03         -0.9301
 998       9.038e+00       1.461e+01       5.608e-01           0.241          -0.103           0.965       5.504e-03         -1.2940
 999       9.124e+00       1.461e+01       5.379e-01           0.280          -0.114           0.953       3.478e-03         -1.5423
1000       9.169e+00       1.461e+01       5.218e-01           0.483          -0.166           0.860       1.307e-03         -1.3454










